
     RDKit          3D

 50 50  0  0  0  0  0  0  0  0999 V2000
    6.4423    0.8151    2.8109 N   0  0  0  0  0  0  0  0  0  0  0  0
    7.1683    1.6519    1.8680 C   0  0  2  0  0  0  0  0  0  0  0  0
    6.8051    1.2647    0.4737 C   0  0  0  0  0  0  0  0  0  0  0  0
    6.2268    2.1026   -0.2705 O   0  0  0  0  0  0  0  0  0  0  0  0
    8.6749    1.5089    2.0826 C   0  0  0  0  0  0  0  0  0  0  0  0
    9.2107    2.3450    3.2498 C   0  0  0  0  0  0  0  0  0  0  0  0
    8.9503    3.8276    3.0426 C   0  0  0  0  0  0  0  0  0  0  0  0
    8.6644    1.8888    4.5934 C   0  0  0  0  0  0  0  0  0  0  0  0
    7.0986   -0.0540   -0.0063 N   0  0  0  0  0  0  0  0  0  0  0  0
    6.6916   -0.5205   -1.3290 C   0  0  2  0  0  0  0  0  0  0  0  0
    5.2018   -0.7036   -1.3969 C   0  0  0  0  0  0  0  0  0  0  0  0
    4.5855   -0.3673   -2.4434 O   0  0  0  0  0  0  0  0  0  0  0  0
    7.4713   -1.7864   -1.7112 C   0  0  2  0  0  0  0  0  0  0  0  0
    7.2475   -2.1444   -3.1764 C   0  0  0  0  0  0  0  0  0  0  0  0
    7.1426   -2.9676   -0.8052 C   0  0  0  0  0  0  0  0  0  0  0  0
    8.3252   -3.0969   -3.6630 C   0  0  0  0  0  0  0  0  0  0  0  0
    4.4961   -1.2758   -0.2906 N   0  0  0  0  0  0  0  0  0  0  0  0
    3.0554   -1.4907   -0.2900 C   0  0  2  0  0  0  0  0  0  0  0  0
    2.3233   -0.1879   -0.2397 C   0  0  0  0  0  0  0  0  0  0  0  0
    2.6088    0.6710    0.6390 O   0  0  0  0  0  0  0  0  0  0  0  0
    2.6729   -2.3419    0.9048 C   0  0  0  0  0  0  0  0  0  0  0  0
    1.2852    0.0617   -1.1891 N   0  0  0  0  0  0  0  0  0  0  0  0
    0.4543    1.2625   -1.1699 C   0  0  2  0  0  0  0  0  0  0  0  0
   -0.4792    1.2628    0.0100 C   0  0  0  0  0  0  0  0  0  0  0  0
   -0.9002    0.1740    0.4907 O   0  0  0  0  0  0  0  0  0  0  0  0
   -0.2850    1.4162   -2.5047 C   0  0  2  0  0  0  0  0  0  0  0  0
   -0.9685    2.6336   -2.5526 O   0  0  0  0  0  0  0  0  0  0  0  0
   -1.2506    0.2720   -2.7734 C   0  0  0  0  0  0  0  0  0  0  0  0
   -0.9268    2.5122    0.5445 N   0  0  0  0  0  0  0  0  0  0  0  0
   -1.8046    2.6230    1.7038 C   0  0  0  0  0  0  0  0  0  0  0  0
   -3.1398    2.0105    1.4320 C   0  0  0  0  0  0  0  0  0  0  0  0
   -3.7207    1.3739    2.3516 O   0  0  0  0  0  0  0  0  0  0  0  0
   -3.7654    2.1738    0.1524 N   0  0  0  0  0  0  0  0  0  0  0  0
   -5.0215    1.5170   -0.1928 C   0  0  2  0  0  0  0  0  0  0  0  0
   -4.8249    0.0393   -0.3719 C   0  0  0  0  0  0  0  0  0  0  0  0
   -3.9122   -0.3965   -1.1261 O   0  0  0  0  0  0  0  0  0  0  0  0
   -5.6693    2.1902   -1.4080 C   0  0  2  0  0  0  0  0  0  0  0  0
   -6.9311    1.6435   -1.6448 O   0  0  0  0  0  0  0  0  0  0  0  0
   -4.8145    2.0891   -2.6621 C   0  0  0  0  0  0  0  0  0  0  0  0
   -5.6887   -0.8683    0.3140 N   0  0  0  0  0  0  0  0  0  0  0  0
   -5.5559   -2.3170    0.2113 C   0  0  2  0  0  0  0  0  0  0  0  0
   -5.9945   -2.7940   -1.1377 C   0  0  0  0  0  0  0  0  0  0  0  0
   -5.7886   -3.9465   -1.4791 O   0  0  0  0  0  0  0  0  0  0  0  0
   -6.3225   -3.0104    1.3422 C   0  0  0  0  0  0  0  0  0  0  0  0
   -7.7949   -2.7426    1.3118 C   0  0  0  0  0  0  0  0  0  0  0  0
   -8.6574   -3.6537    0.6909 C   0  0  0  0  0  0  0  0  0  0  0  0
  -10.0333   -3.4004    0.6493 C   0  0  0  0  0  0  0  0  0  0  0  0
   -8.3136   -1.5769    1.8910 C   0  0  0  0  0  0  0  0  0  0  0  0
   -9.6896   -1.3231    1.8476 C   0  0  0  0  0  0  0  0  0  0  0  0
  -10.5494   -2.2343    1.2265 C   0  0  0  0  0  0  0  0  0  0  0  0
  2  1  1  1
  3  2  1  0
  4  3  2  0
  5  2  1  0
  6  5  1  0
  7  6  1  0
  8  6  1  0
  9  3  1  0
 10  9  1  1
 11 10  1  0
 12 11  2  0
 13 10  1  0
 14 13  1  0
 13 15  1  1
 16 14  1  0
 17 11  1  0
 18 17  1  0
 19 18  1  0
 20 19  2  0
 18 21  1  1
 22 19  1  0
 23 22  1  6
 24 23  1  0
 25 24  2  0
 26 23  1  0
 27 26  1  0
 26 28  1  1
 29 24  1  0
 30 29  1  0
 31 30  1  0
 32 31  2  0
 33 31  1  0
 34 33  1  6
 35 34  1  0
 36 35  2  0
 37 34  1  0
 38 37  1  0
 37 39  1  6
 40 35  1  0
 41 40  1  0
 42 41  1  0
 43 42  2  0
 41 44  1  1
 45 44  1  0
 46 45  2  0
 47 46  1  0
 48 45  1  0
 49 48  2  0
 50 47  2  0
 50 49  1  0
M  END
